*Heading
** Job name: Job-1 Model name: Model-1
** Generated by: Abaqus/CAE 2018
*Preprint, echo=NO, model=NO, history=NO, contact=NO
**
** PARTS
**
*Part, name=PART-DEFAULT
*Node
      1,  0.899999976,  0.600000024,           0.
      2,           0.,  0.600000024,           0.
      3,  0.894999981,  0.600000024,           0.
      4,  0.889999986,  0.600000024,           0.
      5,   0.88499999,  0.600000024,           0.
      6,  0.879999995,  0.600000024,           0.
      7,        0.875,  0.600000024,           0.
      8,  0.870000005,  0.600000024,           0.
      9,   0.86500001,  0.600000024,           0.
     10,  0.860000014,  0.600000024,           0.
     11,  0.855000019,  0.600000024,           0.
     12,  0.850000024,  0.600000024,           0.
     13,  0.845000029,  0.600000024,           0.
     14,  0.839999974,  0.600000024,           0.
     15,  0.834999979,  0.600000024,           0.
     16,  0.829999983,  0.600000024,           0.
     17,  0.824999988,  0.600000024,           0.
     18,  0.819999993,  0.600000024,           0.
     19,  0.814999998,  0.600000024,           0.
     20,  0.810000002,  0.600000024,           0.
** ... 21881 like lines cut
*Element, type=STRI3
    1,     1,     3,   601
    2,     1,   601,   600
    3,     3,     4,   602
    4,     3,   602,   601
    5,     4,     5,   603
    6,     4,   603,   602
    7,     5,     6,   604
    8,     5,   604,   603
    9,     6,     7,   605
   10,     6,   605,   604
   11,     7,     8,   606
   12,     7,   606,   605
   13,     8,     9,   607
   14,     8,   607,   606
   15,     9,    10,   608
   16,     9,   608,   607
   17,    10,    11,   609
   18,    10,   609,   608
   19,    11,    12,   610
   20,    11,   610,   609
** ... 43180 like lines cut
*Nset, nset=AllNodes, generate
     1,  21901,      1
*Elset, elset=AlleElemente, generate
     1,  43200,      1
*Nset, nset=ExcitationPoint
 18465,
*Nset, nset=BcSet_top_bottom
   1,   2,   3,   4,   5,   6,   7,   8,   9,  10,  11,  12,  13,  14,  15,  16
  17,  18,  19,  20,  21,  22,  23,  24,  25,  26,  27,  28,  29,  30,  31,  32
  33,  34,  35,  36,  37,  38,  39,  40,  41,  42,  43,  44,  45,  46,  47,  48
  49,  50,  51,  52,  53,  54,  55,  56,  57,  58,  59,  60,  61,  62,  63,  64
  65,  66,  67,  68,  69,  70,  71,  72,  73,  74,  75,  76,  77,  78,  79,  80
  81,  82,  83,  84,  85,  86,  87,  88,  89,  90,  91,  92,  93,  94,  95,  96
  97,  98,  99, 100, 101, 102, 103, 104, 105, 106, 107, 108, 109, 110, 111, 112
 113, 114, 115, 116, 117, 118, 119, 120, 121, 122, 123, 124, 125, 126, 127, 128
 129, 130, 131, 132, 133, 134, 135, 136, 137, 138, 139, 140, 141, 142, 143, 144
 145, 146, 147, 148, 149, 150, 151, 152, 153, 154, 155, 156, 157, 158, 159, 160
 161, 162, 163, 164, 165, 166, 167, 168, 169, 170, 171, 172, 173, 174, 175, 176
 177, 178, 179, 180, 181, 182, 302, 303, 304, 305, 306, 307, 308, 309, 310, 311
 312, 313, 314, 315, 316, 317, 318, 319, 320, 321, 322, 323, 324, 325, 326, 327
 328, 329, 330, 331, 332, 333, 334, 335, 336, 337, 338, 339, 340, 341, 342, 343
 344, 345, 346, 347, 348, 349, 350, 351, 352, 353, 354, 355, 356, 357, 358, 359
 360, 361, 362, 363, 364, 365, 366, 367, 368, 369, 370, 371, 372, 373, 374, 375
 376, 377, 378, 379, 380, 381, 382, 383, 384, 385, 386, 387, 388, 389, 390, 391
 392, 393, 394, 395, 396, 397, 398, 399, 400, 401, 402, 403, 404, 405, 406, 407
 408, 409, 410, 411, 412, 413, 414, 415, 416, 417, 418, 419, 420, 421, 422, 423
 424, 425, 426, 427, 428, 429, 430, 431, 432, 433, 434, 435, 436, 437, 438, 439
 440, 441, 442, 443, 444, 445, 446, 447, 448, 449, 450, 451, 452, 453, 454, 455
 456, 457, 458, 459, 460, 461, 462, 463, 464, 465, 466, 467, 468, 469, 470, 471
 472, 473, 474, 475, 476, 477, 478, 479, 480, 481
*Nset, nset=BcSet_left_right
   1,   2, 182, 183, 184, 185, 186, 187, 188, 189, 190, 191, 192, 193, 194, 195
 196, 197, 198, 199, 200, 201, 202, 203, 204, 205, 206, 207, 208, 209, 210, 211
 212, 213, 214, 215, 216, 217, 218, 219, 220, 221, 222, 223, 224, 225, 226, 227
 228, 229, 230, 231, 232, 233, 234, 235, 236, 237, 238, 239, 240, 241, 242, 243
 244, 245, 246, 247, 248, 249, 250, 251, 252, 253, 254, 255, 256, 257, 258, 259
 260, 261, 262, 263, 264, 265, 266, 267, 268, 269, 270, 271, 272, 273, 274, 275
 276, 277, 278, 279, 280, 281, 282, 283, 284, 285, 286, 287, 288, 289, 290, 291
 292, 293, 294, 295, 296, 297, 298, 299, 300, 301, 302, 482, 483, 484, 485, 486
 487, 488, 489, 490, 491, 492, 493, 494, 495, 496, 497, 498, 499, 500, 501, 502
 503, 504, 505, 506, 507, 508, 509, 510, 511, 512, 513, 514, 515, 516, 517, 518
 519, 520, 521, 522, 523, 524, 525, 526, 527, 528, 529, 530, 531, 532, 533, 534
 535, 536, 537, 538, 539, 540, 541, 542, 543, 544, 545, 546, 547, 548, 549, 550
 551, 552, 553, 554, 555, 556, 557, 558, 559, 560, 561, 562, 563, 564, 565, 566
 567, 568, 569, 570, 571, 572, 573, 574, 575, 576, 577, 578, 579, 580, 581, 582
 583, 584, 585, 586, 587, 588, 589, 590, 591, 592, 593, 594, 595, 596, 597, 598
 599, 600
*Nset, nset=BcSet, generate
   1,  600,    1
** Section: Section-1
*Shell Section, elset=AlleElemente, material=Aluminium
0.003, 5
*End Part
**  
**
** ASSEMBLY
**
*Assembly, name=Assembly
**  
*Instance, name=Instance, part=PART-DEFAULT
*End Instance
**  
*Spring, elset=Springs_rx-spring
4
100.
*Element, type=Spring1, elset=Springs_rx-spring
1, Instance.1
2, Instance.2
3, Instance.3
4, Instance.4
5, Instance.5
6, Instance.6
7, Instance.7
8, Instance.8
9, Instance.9
10, Instance.10
11, Instance.11
12, Instance.12
13, Instance.13
14, Instance.14
15, Instance.15
16, Instance.16
17, Instance.17
18, Instance.18
19, Instance.19
20, Instance.20
** ... 342 like lines cut
*Spring, elset=Springs_ry-spring
5
100.
*Element, type=Spring1, elset=Springs_ry-spring
363, Instance.1
364, Instance.2
365, Instance.182
366, Instance.183
367, Instance.184
368, Instance.185
369, Instance.186
370, Instance.187
371, Instance.188
372, Instance.189
373, Instance.190
374, Instance.191
375, Instance.192
376, Instance.193
377, Instance.194
378, Instance.195
379, Instance.196
380, Instance.197
381, Instance.198
382, Instance.199
** ... 222 like lines cut
*End Assembly
** 
** MATERIALS
** 
*Material, name=Aluminium
*Damping, structural=0.02
*Density
2700.,
*Elastic
 7e+10, 0.3
** 
** BOUNDARY CONDITIONS
** 
** Name: BC-1 Type: Displacement/Rotation
*Boundary
Instance.BcSet, 3, 3
** ----------------------------------------------------------------
** 
** STEP: modal_analysis
** 
*Step, name=modal_analysis, nlgeom=NO, perturbation
*Frequency, eigensolver=Lanczos, sim, acoustic coupling=on, normalization=mass
, 0.5, 600., , , 
** 
** OUTPUT REQUESTS
** 
*Restart, write, frequency=0
** 
** FIELD OUTPUT: F-Output-1
** 
*Output, field, variable=PRESELECT
*End Step
** ----------------------------------------------------------------
** 
** STEP: direct_analysis
** 
*Step, name=direct_analysis, nlgeom=NO, perturbation
*Steady State Dynamics
1., 300., 30, 2.
** 
** LOADS
** 
** Name: Load-1   Type: Concentrated force
*Cload, real
Instance.ExcitationPoint, 3, 1.
** 
** OUTPUT REQUESTS
** 
** 
** FIELD OUTPUT: DirectSolution
** 
*Output, field
*Node Output
V, 
** 
** FIELD OUTPUT: F-Output-1
** 
*Output, field, variable=PRESELECT
** 
** HISTORY OUTPUT: H-Output-1
** 
*Output, history, variable=PRESELECT
*End Step
